51
XYZ file generated by orca_plot on BaseName=retinol
  C      -5.425659      2.703658      0.433162
  C      -5.285892      1.269164      0.937680
  C      -4.398720      0.482376     -0.026042
  H      -6.268894      0.792174      1.028811
  H      -4.840983      1.264154      1.940399
  C      -3.140391      1.219450     -0.438888
  H      -4.968494      0.219436     -0.932626
  H      -4.110210     -0.482056      0.416501
  C      -2.960823      2.548001     -0.223401
  C      -4.072219      3.451001      0.367125
  H      -6.116461      3.278110      1.063211
  H      -5.868709      2.678764     -0.572449
  C      -4.288392      4.707198     -0.511278
  H      -4.461880      4.436312     -1.558939
  H      -3.441643      5.398839     -0.472708
  H      -5.168791      5.256516     -0.156449
  C      -3.655509      3.915312      1.783919
  H      -3.573592      3.070977      2.475912
  H      -4.390890      4.620433      2.190894
  H      -2.681810      4.415013      1.761979
  C      -2.149844      0.324581     -1.147330
  H      -2.683263     -0.322557     -1.856995
  H      -1.638573     -0.349921     -0.445770
  H      -1.385938      0.880405     -1.691942
  C      -1.691743      3.239110     -0.527179
  C      -0.452428      2.805574     -0.195702
  C       0.803329      3.492040     -0.469429
  C       1.963954      2.910922     -0.044188
  C       3.311587      3.400212     -0.190541
  C       4.395656      2.729180      0.276715
  C       5.789578      3.148291      0.173565
  C       6.739133      2.361821      0.731138
  C       8.219103      2.584328      0.793500
  O       8.855620      1.321541      0.598575
  H       8.482038      2.997794      1.785335
  H       8.552071      3.318571      0.044941
  C       0.752841      4.810684     -1.203478
  H       0.168852      5.548188     -0.638602
  H       0.263465      4.696407     -2.178367
  H       1.742524      5.233848     -1.377538
  C       6.089014      4.446331     -0.541827
  H       5.654716      5.298397     -0.004695
  H       5.653214      4.444657     -1.547250
  H       7.159718      4.631544     -0.642024
  H      -1.775796      4.209770     -1.009707
  H      -0.361163      1.864734      0.344768
  H       1.873225      1.955136      0.472977
  H       3.458378      4.351149     -0.694248
  H       4.228031      1.779886      0.785777
  H       6.423759      1.446480      1.230783
  H       9.797295      1.435585      0.778995
