173
Coordinates from ORCA-job estearina
  C   -15.98929943746764     -3.65383175992191    -16.49625611061072
  C   -14.58972890784263     -3.08627747292748    -16.32127772470278
  C   -13.96571464213060     -3.54246268181954    -15.01247162112858
  C   -12.56760702773785     -2.97174978580388    -14.83803264937818
  C   -11.94309526731281     -3.42902600002878    -13.52970655839606
  C   -10.54668923318902     -2.85476190363328    -13.35331365720460
  C   -9.92150882805615     -3.31343736165857    -12.04579548451007
  C   -8.52751830748811     -2.73421773942173    -11.86651662352375
  C   -7.90146080615258     -3.19485203063747    -10.56010726501346
  C   -6.51059497977711     -2.60929725723024    -10.37709245415940
  C   -5.88339936147354     -3.07248723346139     -9.07212076800719
  C   -4.49655635190274     -2.47892903489046     -8.88440643136008
  C   -3.86818826643597     -2.94532846110400     -7.58111888188250
  C   -2.48630872831317     -2.34193049049395     -7.38809764423560
  C   -1.85809753761658     -2.81359992840602     -6.08620742186208
  C   -0.48219673453507     -2.19333949517669     -5.89391402934552
  C   0.14934894039059     -2.69312008413923     -4.61218770790563
  O   -0.01584285838509     -1.81966559602200     -3.57756092048659
  O   0.74921811873530     -3.73613368517273     -4.44233871680275
  C   -15.14567782120234    -17.38794784216328      5.00369302026891
  C   -14.05608390938903    -17.10852751053454      3.98088034577962
  C   -13.35136237774116    -15.79244181686377      4.26657333887978
  C   -12.26484129150338    -15.51283798323872      3.24082021537159
  C   -11.55787636651970    -14.19822666817788      3.52888318722654
  C   -10.47621945244213    -13.91498820018517      2.49899451880204
  C   -9.76452696230981    -12.60391103330070      2.79122604000530
  C   -8.68985539332983    -12.31557892082506      1.75547698723032
  C   -7.97087175136028    -11.00980982467074      2.05371757357858
  C   -6.90517836833272    -10.71513740766147      1.01052147373595
  C   -6.17711235031864     -9.41605772035269      1.31582524810710
  C   -5.12238875081982     -9.11375695439593      0.26367665066843
  C   -4.38348712026952     -7.82281019173763      0.57739909364668
  C   -3.34195064592044     -7.51166026582082     -0.48527942459168
  C   -2.59103254426129     -6.23009057746800     -0.16003699698490
  C   -1.56627785352443     -5.91513479715371     -1.23984717320258
  C   -0.78830864870683     -4.66751029808297     -0.88549119440988
  O   -1.28955956239163     -3.54067036346273     -1.48226227015136
  O   0.17344989181224     -4.57742722348850     -0.14956617751389
  C   21.95954054403359      6.50176927217201     -1.17372497403212
  C   21.10678769159827      5.32081607482682     -1.60912812080705
  C   19.62554931922105      5.60809195107729     -1.42461405287658
  C   18.77483726928985      4.42548142993828     -1.85874390975254
  C   17.29332465725343      4.71387698831790     -1.67733797306584
  C   16.44300018455640      3.52969444039384     -2.10793532331719
  C   14.96123547630152      3.81990511978677     -1.93197643610709
  C   14.11146335818175      2.63331170096741     -2.35704301052313
  C   12.62928776363803      2.92644008102318     -2.18936841421565
  C   11.78013039954762      1.73662075378409     -2.60665876625875
  C   10.29752542995350      2.03375964926899     -2.45021114435529
  C   9.44903985201665      0.83989768845450     -2.85723147853488
  C   7.96607884157469      1.14206059809454     -2.71413916829240
  C   7.11858680160357     -0.05654207545293     -3.10922991301515
  C   5.63548614226441      0.25342472636697     -2.98097124551580
  C   4.79509789955595     -0.95552121738535     -3.36514618906125
  C   3.32092123897721     -0.62340778697817     -3.28216763474619
  O   2.74947555069626     -1.06282896579767     -2.11933362021001
  O   2.65081021642135     -0.02756440788344     -4.10074458493348
  C   1.36729078690360     -0.86640745068589     -1.86816844561364
  C   0.53820307670665     -2.10393786493711     -2.28686446271534
  C   -0.63776153751274     -2.29481376548795     -1.30203540690764
  H   -14.62446906560064     -1.97871158042868    -16.35894907354853
  H   -13.94950549449199     -3.39176354581824    -17.17336420532072
  H   -13.92969466900812     -4.65007977861963    -14.97619172596386
  H   -14.60750260892887     -3.23856987369317    -14.16091335942121
  H   -11.92598617470125     -3.27481969796810    -15.68999951112287
  H   -12.60395254637889     -1.86411241203044    -14.87342173366955
  H   -12.58623693483656     -3.12861280682894    -12.67792122565050
  H   -11.90404773549913     -4.53660666888204    -13.49563713105418
  H   -10.58617285182997     -1.74713271455698    -13.38595260797806
  H   -9.90378219296170     -3.15384619445695    -14.20571608468320
  H   -10.56648341501200     -3.01800513774426    -11.19364622132887
  H   -9.87826203060387     -4.42095601531322    -12.01498933026141
  H   -8.57136912615561     -1.62664943525457    -11.89539321845707
  H   -7.88287648383854     -3.02788034308181    -12.71949072152583
  H   -7.85260989902202     -4.30225173188979    -10.53360823692787
  H   -8.54880228806588     -2.90603023010957     -9.70749181202993
  H   -6.56017343890340     -1.50185316695362    -10.40118223037267
  H   -5.86365185904319     -2.89594270967520    -11.23070780759201
  H   -6.53372255127122     -2.79190207917094     -8.21901019022512
  H   -5.82757453647232     -4.17966793620901     -9.05106164187014
  H   -4.55330370903039     -1.37170352853698     -8.90251079163130
  H   -3.84680839970662     -2.75684782515112     -9.73878135267529
  H   -4.52195854174049     -2.67470621150797     -6.72739695499999
  H   -3.80379352300814     -4.05216819826348     -7.56674774919944
  H   -2.55171715610492     -1.23501839585679     -7.39881030431918
  H   -1.83305349182188     -2.60965034438782     -8.24312222236239
  H   -1.78237681274891     -3.91956492220498     -6.08095017628751
  H   -2.51516351819786     -2.55327902800626     -5.23232121960579
  H   -0.55354507307006     -1.08634756591876     -5.89239956094264
  H   0.18330254378274     -2.45358725116945     -6.74136258334234
  H   -14.49119246540525    -17.09216986948667      2.96120349253021
  H   -13.32120410868948    -17.93872308672518      3.97589793480071
  H   -14.08720915252599    -14.96298987177603      4.27419079312762
  H   -12.91446592969774    -15.81011344850105      5.28553221803928
  H   -11.53037946878981    -16.34334921251834      3.23155511462804
  H   -12.70253034033800    -15.49191164911032      2.22233548826921
  H   -11.11599124186122    -14.22124930298363      4.54553678483537
  H   -12.29291349049059    -13.36823197194599      3.54330631416653
  H   -10.91912695898773    -13.88703931343925      1.48287703631905
  H   -9.74392952643957    -14.74733403812481      2.48032981048689
  H   -9.31543099363678    -12.63503286962288      3.80451814473447
  H   -10.49764521381047    -11.77247530032270      2.81704395420471
  H   -9.14063196762762    -12.27695044477786      0.74318737094694
  H   -7.96076429537431    -13.15033244770300      1.72382569507164
  H   -8.70090581812097    -10.17626586980223      2.09464463468834
  H   -7.51227815262157    -11.05230981331282      3.06232165250182
  H   -7.36585918681231    -10.66337753263003      0.00328299757215
  H   -6.18030339369750    -11.55278543010305      0.96253577374495
  H   -5.70687868337231     -9.47247734786758      2.31837918831210
  H   -6.90291137525068     -8.57993147237008      1.37520470307953
  H   -5.59493916039238     -9.04632108673062     -0.73712749782063
  H   -4.40284469669285     -9.95465817201946      0.19606183108604
  H   -3.89959288993268     -7.89591169726281      1.57237165497107
  H   -5.10403391687019     -6.98394107459744      0.65842977984369
  H   -3.82829315409023     -7.42553417944753     -1.47808506876286
  H   -2.62875897229346     -8.35590921975009     -0.57575545671835
  H   -3.30508065623204     -5.38879336491128     -0.05633597947592
  H   -2.09118455911844     -6.32407796288083      0.82495965722226
  H   -2.06448691682568     -5.80152211832536     -2.22405421520213
  H   -0.85385225220259     -6.75665117005014     -1.35579476434139
  H   21.39219278193267      4.41699477538610     -1.03384069850184
  H   21.31615421224900      5.07515081059821     -2.66985621202813
  H   19.34045124201526      6.51121312998574     -2.00117118127481
  H   19.41756553312816      5.85512976618530     -0.36392105877897
  H   18.98496126032571      4.17707432055692     -2.91873262818393
  H   19.05809745028158      3.52279295126906     -1.28056925967593
  H   17.08367707598961      4.96521585744629     -0.61795445373401
  H   17.00898970588167      5.61485732167117     -2.25766014772748
  H   16.72430557736928      2.62960831240594     -1.52464990861897
  H   16.65607635639083      3.27557182314344     -3.16602069075585
  H   14.74892434961006      4.07805338697821     -0.87477209844593
  H   14.67903355578215      4.71734372233554     -2.51879355833696
  H   14.38947532619347      1.73745706723464     -1.76574264801434
  H   14.32851968035374      2.37100338411634     -3.41231707461303
  H   12.35027236807267      3.81856936113659     -2.78568839490217
  H   12.41321056417530      3.19444324251057     -1.13541026997362
  H   12.05361448681587      0.84670066939810     -2.00440294636267
  H   12.00240430415054      1.46298261553260     -3.65795482254106
  H   10.07638967688769      2.31498552222111     -1.40074483007736
  H   10.02275316724194      2.91884188074485     -3.05890652151359
  H   9.71706263988109     -0.04240137674716     -2.24145045428867
  H   9.67749406043679      0.55213122667433     -3.90341672681102
  H   7.73899536188193      1.43858087465550     -1.67014726089840
  H   7.69664518755821      2.01863722740572     -3.33740580561330
  H   7.38013835728055     -0.92983057163425     -2.47791900150196
  H   7.35367689755455     -0.36021654895354     -4.14949030493698
  H   5.37292461456721      1.11971463848965     -3.62092236954444
  H   5.40240551588475      0.56410637452986     -1.94293140227288
  H   5.04341117286987     -1.81960195080037     -2.71568437751893
  H   5.02838121951238     -1.27672420612703     -4.40020994630662
  H   0.97808727098157      0.06943104694059     -2.31447194418972
  H   1.36999901246665     -0.75144063951213     -0.76851954897681
  H   1.18276565763970     -3.01987126350226     -2.29148651687894
  H   -0.29725389635743     -2.15465045933913     -0.25772767567689
  H   -1.46703155781495     -1.59074960844537     -1.49653882769473
  C   -16.61154048137343     -3.20159432150091    -17.79796367220647
  H   -15.95427037743163     -4.76091071789721    -16.45805714831642
  H   -16.62901437758845     -3.34784027174426    -15.64455083020915
  H   -16.69339957483905     -2.10762819369789    -17.84922068505882
  H   -17.62185840499203     -3.61217713560573    -17.92069881843304
  H   -16.01857481747535     -3.52441137419885    -18.66411377730592
  C   -15.84655211463426    -18.69785833269958      4.72244406386257
  H   -14.71051497792947    -17.40265995820305      6.02286772707413
  H   -15.88101000662942    -16.55876723026850      5.00716906295729
  H   -16.32081856512059    -18.69891319823976      3.73192711439394
  H   -16.63225943927949    -18.89648232935734      5.46244523531396
  H   -15.14823196429360    -19.54498964829847      4.74983843946808
  C   23.43335111954998      6.21835794882647     -1.35764517076634
  H   21.67331630054636      7.40514835030721     -1.74839695735815
  H   21.75092482128263      6.74649597444444     -0.11312877682753
  H   23.67746998391471      6.00829917411625     -2.40757397323240
  H   23.75528508257576      5.34917310786959     -0.76863912311693
  H   24.04587065943856      7.07285780211385     -1.04299671263316
