26
Coordinates from ORCA-job glicina-glutamico
  C   -4.62370185595537      2.87834305560694      1.33428750967553
  C   -3.76110329140594      1.64022478988996      1.10639877424557
  N   -2.53921645861060      1.83732025874795      0.38347488537226
  O   -4.03380237141905      0.55316203984310      1.58480081219396
  N   -5.06518858523348      3.43397908393304      0.03588862968854
  C   0.33845386162478     -2.02877442000516      1.40954763142209
  C   -0.06399162646878     -1.02131192260961      0.36096015127771
  C   -1.37988215724545     -0.36060919058638      0.75162085460681
  C   -1.78692060401426      0.72612578654989     -0.25573011671487
  C   -2.54035682161027      0.12209471409702     -1.44061781943177
  O   -1.77196651061434     -0.55387278125260     -2.32713281656576
  O   -0.03640336683960     -3.30513609200804      1.15933115867734
  O   0.95783919247127     -1.84865919819045      2.44215588428763
  O   -3.72257467761855      0.18990146012495     -1.71950879807041
  H   -4.03005850471604      3.65288123210009      1.86229673117882
  H   -5.46659147874442      2.62262261515034      2.01342259287526
  H   -2.57794015541259      2.63360487234377     -0.21761545828580
  H   -5.57077386655728      4.27886862527544      0.19776494146593
  H   -5.65955855337357      2.77938637839636     -0.42798506417671
  H   0.74227622373466     -0.26610415585540      0.26559782444039
  H   -0.14618237311046     -1.51003671574680     -0.63122141298649
  H   -2.17906486935839     -1.12442939607861      0.84355577743180
  H   -1.27696386852558      0.08574556218121      1.76271698479062
  H   -0.85957907516057      1.21569338405760     -0.65430733428451
  H   -2.31753302383190     -0.91502602879569     -3.01941701895258
  H   0.24122481799579     -3.87260395716893      1.87179469583863
