43
Coordinates from ORCA-job lisina-leucina
  C   -0.05265139395036     -1.09145884738196      1.20676977921879
  C   1.34807282162164     -1.63157689058496      0.93815791959262
  C   1.71696069848783     -1.46380229819563     -0.52762294294298
  C   3.09722111831345     -2.03741606123262     -0.80974189017221
  C   3.54003242136253     -1.81033514589720     -2.26007646038537
  C   5.03030544201378     -2.16300231575767     -2.40065373417028
  N   -0.37395451592429     -1.16755457939635      2.64842911530175
  O   5.50588622356875     -3.41377590117756     -2.32325463658297
  O   5.91556229205174     -1.34394602388190     -2.54681820448555
  N   2.70559601264448     -2.49272645647150     -3.28559008376249
  C   -1.38592641752336     -4.54514033720797     -3.40971002865329
  C   0.04094450628515     -4.63745599264820     -2.86429848743315
  C   -2.37592920987780     -5.01690723150382     -2.35770961787239
  C   -1.70696238617879     -3.12261231629174     -3.84053835459511
  C   1.09709351274392     -4.32292876853840     -3.93803748228355
  C   2.38064374380721     -3.87490740014464     -3.23163695910354
  N   1.40830174026133     -5.44143387175508     -4.85722298733443
  O   3.14437732947973     -4.65000149493921     -2.66488285320390
  H   -0.79055408428751     -1.62889499054795      0.57022183542947
  H   -0.11421429636551     -0.02426085062131      0.91208293546721
  H   1.41094261962529     -2.70265202924132      1.22088002696667
  H   2.09147011333333     -1.11123424644082      1.57571379851595
  H   0.95358073251905     -1.96046391293600     -1.16351448211722
  H   1.68444865019710     -0.39047388443929     -0.80510195548709
  H   3.12170583496655     -3.11669612335192     -0.55153501173197
  H   3.83983909919924     -1.55771352810447     -0.13900025651700
  H   3.43821078118299     -0.71916240764443     -2.49727349905533
  H   -1.30138478200371     -0.83108236987190      2.79811342599276
  H   -0.31508295353207     -2.11479862764562      2.95951109293695
  H   4.78840193084843     -4.05248335724743     -2.28842278882936
  H   1.93962707613003     -1.92036949413060     -3.57148556140149
  H   -1.47633586872858     -5.21367045349052     -4.30166103541375
  H   0.21557432197862     -5.64433607456205     -2.43231919491189
  H   0.14720582400252     -3.92934234667535     -2.01483972157186
  H   -2.19247562821419     -6.06077950578706     -2.07114966905192
  H   -3.40720011875457     -4.95239381579554     -2.72858354297611
  H   -2.31688586824319     -4.40937016953751     -1.44430238830744
  H   -0.94484604976519     -2.75088283365811     -4.54613167623731
  H   -2.68313577107172     -3.06391152113487     -4.33738798202529
  H   -1.72822400078861     -2.43368304476708     -2.98532393841668
  H   0.69420957642144     -3.49732214379732     -4.59286451295726
  H   1.86040329923603     -6.18483592288684     -4.36699688101237
  H   0.55803562292732     -5.77761441267828     -5.25901110841960
